
 ANSYS Mechanical Enterprise                       


 *------------------------------------------------------------------*
 |                                                                  |
 |   W E L C O M E   T O   T H E   A N S Y S (R)  P R O G R A M     |
 |                                                                  |
 *------------------------------------------------------------------*




 ***************************************************************
 *            ANSYS Release 19.2     LEGAL NOTICES             *
 ***************************************************************
 *                                                             *
 * Copyright 1971-2018 ANSYS, Inc.  All rights reserved.       *
 * Unauthorized use, distribution or duplication is            *
 * prohibited.                                                 *
 *                                                             *
 * Ansys is a registered trademark of ANSYS, Inc. or its       *
 * subsidiaries in the United States or other countries.       *
 * See the ANSYS, Inc. online documentation or the ANSYS, Inc. *
 * documentation CD or online help for the complete Legal      *
 * Notice.                                                     *
 *                                                             *
 ***************************************************************
 *                                                             *
 * THIS ANSYS SOFTWARE PRODUCT AND PROGRAM DOCUMENTATION       *
 * INCLUDE TRADE SECRETS AND CONFIDENTIAL AND PROPRIETARY      *
 * PRODUCTS OF ANSYS, INC., ITS SUBSIDIARIES, OR LICENSORS.    *
 * The software products and documentation are furnished by    *
 * ANSYS, Inc. or its subsidiaries under a software license    *
 * agreement that contains provisions concerning               *
 * non-disclosure, copying, length and nature of use,          *
 * compliance with exporting laws, warranties, disclaimers,    *
 * limitations of liability, and remedies, and other           *
 * provisions.  The software products and documentation may be *
 * used, disclosed, transferred, or copied only in accordance  *
 * with the terms and conditions of that software license      *
 * agreement.                                                  *
 *                                                             *
 * ANSYS, Inc. is a UL registered                              *
 * ISO 9001:2008 company.                                      *
 *                                                             *
 ***************************************************************
 *                                                             *
 * This product is subject to U.S. laws governing export and   *
 * re-export.                                                  *
 *                                                             *
 * For U.S. Government users, except as specifically granted   *
 * by the ANSYS, Inc. software license agreement, the use,     *
 * duplication, or disclosure by the United States Government  *
 * is subject to restrictions stated in the ANSYS, Inc.        *
 * software license agreement and FAR 12.212 (for non-DOD      *
 * licenses).                                                  *
 *                                                             *
 ***************************************************************

 Release 19.2
     
 Point Releases and Patches installed:   
     
 ANSYS, Inc. Products Release 19.2   
 SpaceClaim Release 19.2 
 AIM Release 19.2
 Autodyn Release 19.2
 LS-DYNA Release 19.2
 CFX (includes CFD-Post) Release 19.2
 Chemkin Release 19.2
 EnSight Release 19.2
 FENSAP-ICE Release 19.2 
 Fluent (includes CFD-Post) Release 19.2 
 Forte Release 19.2  
 Polyflow (includes CFD-Post) Release 19.2   
 TurboGrid Release 19.2  
 ICEM CFD Release 19.2   
 Mechanical Products Release 19.2
 Icepak (includes CFD-Post) Release 19.2 
 ACIS Geometry Interface Release 19.2
 AutoCAD Geometry Interface Release 19.2 
 Catia, Version 4 Geometry Interface Release 19.2
 Catia, Version 6 Geometry Interface Release 19.2
 Creo Elements/Direct Modeling Geometry Interface Release 19.2   
 Creo Parametric Geometry Interface Release 19.2 
 Inventor Geometry Interface Release 19.2
 JTOpen Geometry Interface Release 19.2  
 NX Geometry Interface Release 19.2  
 Parasolid Geometry Interface  Release 19.2  
 Solid Edge Geometry Interface Release 19.2  
 SOLIDWORKS Geometry Interface Release 19.2  
 ANSYS, Inc. License Manager Release 19.2


          *****  ANSYS COMMAND LINE ARGUMENTS  *****
  INITIAL JOBNAME              = MITC                                                                                                                                                                                                                                                    
  BATCH MODE REQUESTED (-b)    = LIST
  INPUT FILE COPY MODE (-c)    = COPY
  SHARED MEMORY PARALLEL REQUESTED
    SINGLE PROCESS WITH   2 THREADS REQUESTED
    TOTAL OF     2 CORES REQUESTED
  INPUT FILE NAME              = D:\Luciano\Numerico\MITC_Shells\APDL\bend_F_1elem_t0.1\MITC.inp
  OUTPUT FILE NAME             = D:\Luciano\Numerico\MITC_Shells\APDL\bend_F_1elem_t0.1\MITC.out
  START-UP FILE MODE           = READ  
  STOP FILE MODE               = READ  
  LANGUAGE                     = en-us               
  INITIAL DIRECTORY = D:\Luciano\Numerico\MITC_Shells\APDL\bend_F_1elem_t0.1

 RELEASE= Release 19.2         BUILD= 19.2      UP20180808   VERSION=WINDOWS x64 
 CURRENT JOBNAME=MITC  16:20:45  MAY 08, 2025 CP=      0.156

     1      
     2  !-------------------------------------------------------
     3  ! APDL script for single MITC3 shell element (SHELL181) 
     4  !-------------------------------------------------------
     5      
     6  ! Clear existing database   
     7  /CLEAR,NOSTART  
     8      
     9  ! Set title 
    10  /TITLE, Single MITC3 Shell Element Demonstration
    11      
    12  /PREP7  
    13  ! For Thin Shells (Most Cases) → Use full MITC3:  
    14  ! For Thick Shells or Explicit Dynamics → MITC for shear only:
    15      
    16  ! Define element type (SHELL181 - MITC3 formulation)
    17  ET,1,SHELL181   ! 3-node shell element with MITC formulation
    18  KEYOPT,1,8,2    ! MITC3 membrane-bending formulation
    19  KEYOPT,1,3,2    ! Pure displacement-based triangular, no incomp modes(displacement-based, no enhanced strains)  
    20      
    21  ! Material properties (Aluminum example)
    22  MP,EX,1,200E9    ! Elastic modulus (MPa)
    23  MP,NUXY,1,0.3   ! Poisson's ratio   
    24  MP,DENS,1,7850 ! Density (tonne/mm³)   
    25      
    26  ! Section properties (1mm thick shell)  
    27  SECTYPE,1,SHELL 
    28  SECDATA,0.1       ! Thickness = 1mm 
    29      
    30  ! Create nodes (equilateral triangle in XY plane)   
    31  N,1,0,0,0       ! Node 1 at origin  
    32  N,2,1,0,0     ! Node 2 at (1,0,0)   
    33  N,3,0,1,0 ! Node 3  
    34      
    35  ! Create element
    36  E,1,2,3         ! Connect nodes 1-2-3   
    37      
    38  ! Apply boundary conditions 
    39  ! Fix all DOFs at node 1
    40  D,1,ALL,0        ! UX,UY,UZ,ROTX,ROTY,ROTZ = 0  
    41  D,3,ALL,0        ! UX,UY,UZ,ROTX,ROTY,ROTZ = 0  
    42      
    43  ! Apply pressure load   
    44  !SFE,ALL,2,PRES,,1  ! 1 MPa pressure on element 
    45      
    46  ! Apply force at node 2 
    47  F,2,FZ,-50       ! -50N force in Y-direction
    48      
    49  ! Finish preprocessing  
    50  FINISH  
    51      
    52  !-------------------------------------------------------
    53  ! Solution phase
    54  !-------------------------------------------------------
    55  /SOLU   
    56  ANTYPE,0         ! Static analysis  
    57  SOLVE            ! Solve the model  
    58  FINISH  
    59      
    60  !-------------------------------------------------------
    61  ! Postprocessing
    62  !-------------------------------------------------------
    63  /POST1  
    64      
    65  ERESX,NO          ! Disable extrapolation (show Gauss-point values) 
    66  PRESOL,EPEL,COMP  ! Print elastic strains at integration points 
    67      
    68  !PLDISP,1         ! Plot deformed shape 
    69  PRNSOL,U,COMP    ! Print nodal displacements
    70  PRNSOL,ROT,COMP 
    71  PRESOL,S,COMP    ! Print element stresses   
    72  PRESOL,EPEL,COMP    ! Print element stresses
    73  FINISH  

 RUN SETUP PROCEDURE FROM FILE= D:\ANSYS Inc\v192\ANSYS\apdl\start.ans

 /INPUT FILE= D:\ANSYS Inc\v192\ANSYS\apdl\start.ans  LINE=       0

 CLEAR ANSYS DATABASE AND RESTART

 ANSYS Mechanical Enterprise                       

 TITLE= 
  Single MITC3 Shell Element Demonstration                                     


 *** ANSYS - ENGINEERING ANALYSIS SYSTEM  RELEASE Release 19.2     19.2     ***
 ANSYS Mechanical Enterprise                       
 00000000  VERSION=WINDOWS x64   16:20:45  MAY 08, 2025 CP=      0.281

  Single MITC3 Shell Element Demonstration                                     



          ***** ANSYS ANALYSIS DEFINITION (PREP7) *****

 ELEMENT TYPE       1 IS SHELL181     4-NODE SHELL                
  KEYOPT( 1- 6)=        0      0      0        0      0      0
  KEYOPT( 7-12)=        0      0      0        0      0      0
  KEYOPT(13-18)=        0      0      0        0      0      0

 CURRENT NODAL DOF SET IS  UX    UY    UZ    ROTX  ROTY  ROTZ
  THREE-DIMENSIONAL MODEL

 ELEMENT TYPE       1 IS SHELL181     4-NODE SHELL                
  KEYOPT( 1- 6)=        0      0      0        0      0      0
  KEYOPT( 7-12)=        0      2      0        0      0      0
  KEYOPT(13-18)=        0      0      0        0      0      0

 CURRENT NODAL DOF SET IS  UX    UY    UZ    ROTX  ROTY  ROTZ
  THREE-DIMENSIONAL MODEL

 ELEMENT TYPE       1 IS SHELL181     4-NODE SHELL                
  KEYOPT( 1- 6)=        0      0      2        0      0      0
  KEYOPT( 7-12)=        0      2      0        0      0      0
  KEYOPT(13-18)=        0      0      0        0      0      0

 CURRENT NODAL DOF SET IS  UX    UY    UZ    ROTX  ROTY  ROTZ
  THREE-DIMENSIONAL MODEL

 MATERIAL          1     EX   =  0.2000000E+12  

 MATERIAL          1     NUXY =  0.3000000      

 MATERIAL          1     DENS =   7850.000      
                                      
   INPUT SECTION ID NUMBER             1
   INPUT SECTION TYPE                 SHELL
   INPUT SHELL SECTION NAME                   


 Shell Section ID=      1 Number of layers=    1  Total Thickness=     0.100000

 NODE          1  KCS=      0  X,Y,Z=  0.0000       0.0000       0.0000     

 NODE          2  KCS=      0  X,Y,Z=  1.0000       0.0000       0.0000     

 NODE          3  KCS=      0  X,Y,Z=  0.0000       1.0000       0.0000     

 ELEMENT      1       1      2      3      3

 SPECIFIED CONSTRAINT UX   FOR SELECTED NODES            1 TO           1 BY           1
 REAL=  0.00000000       IMAG=  0.00000000    
 ADDITIONAL DOFS=  UY    UZ    ROTX  ROTY  ROTZ

 SPECIFIED CONSTRAINT UX   FOR SELECTED NODES            3 TO           3 BY           1
 REAL=  0.00000000       IMAG=  0.00000000    
 ADDITIONAL DOFS=  UY    UZ    ROTX  ROTY  ROTZ

 SPECIFIED NODAL LOAD FZ   FOR SELECTED NODES         2 TO        2 BY        1
  REAL= -50.0000000       IMAG=  0.00000000    


 ***** ROUTINE COMPLETED *****  CP =         0.281



 *****  ANSYS SOLUTION ROUTINE  *****


 PERFORM A STATIC ANALYSIS
  THIS WILL BE A NEW ANALYSIS

 *****  ANSYS SOLVE    COMMAND  *****

 *** SELECTION OF ELEMENT TECHNOLOGIES FOR APPLICABLE ELEMENTS ***
                ---GIVE SUGGESTIONS ONLY---

 ELEMENT TYPE    1 IS SHELL181. IT IS ASSOCIATED WITH ELASTOPLASTIC 
 MATERIALS ONLY. KEYOPT(8) IS ALREADY SET AS SUGGESTED. KEYOPT(3)=2 
 IS SUGGESTED FOR HIGHER ACCURACY OF MEMBRANE STRESSES; OTHERWISE, 
 KEYOPT(3)=0 IS SUGGESTED.



 *** ANSYS - ENGINEERING ANALYSIS SYSTEM  RELEASE Release 19.2     19.2     ***
 ANSYS Mechanical Enterprise                       
 00000000  VERSION=WINDOWS x64   16:20:45  MAY 08, 2025 CP=      0.281

  Single MITC3 Shell Element Demonstration                                     



                       S O L U T I O N   O P T I O N S

   PROBLEM DIMENSIONALITY. . . . . . . . . . . . .3-D                  
   DEGREES OF FREEDOM. . . . . . UX   UY   UZ   ROTX ROTY ROTZ
   ANALYSIS TYPE . . . . . . . . . . . . . . . . .STATIC (STEADY-STATE)
   GLOBALLY ASSEMBLED MATRIX . . . . . . . . . . .SYMMETRIC  

 *** NOTE ***                            CP =       0.281   TIME= 16:20:45
 Present time 0 is less than or equal to the previous time.  Time will   
 default to 1.                                                           

 *** NOTE ***                            CP =       0.281   TIME= 16:20:45
 The conditions for direct assembly have been met.  No .emat or .erot    
 files will be produced.                                                 

                      L O A D   S T E P   O P T I O N S

   LOAD STEP NUMBER. . . . . . . . . . . . . . . .     1
   TIME AT END OF THE LOAD STEP. . . . . . . . . .  1.0000    
   NUMBER OF SUBSTEPS. . . . . . . . . . . . . . .     1
   STEP CHANGE BOUNDARY CONDITIONS . . . . . . . .    NO
   PRINT OUTPUT CONTROLS . . . . . . . . . . . . .NO PRINTOUT
   DATABASE OUTPUT CONTROLS. . . . . . . . . . . .ALL DATA WRITTEN
                                                  FOR THE LAST SUBSTEP


 SOLUTION MONITORING INFO IS WRITTEN TO FILE= MITC.mntr                                                                                                                                                                                                                                                           

 *** NOTE ***                            CP =       0.297   TIME= 16:20:45
 Predictor is ON by default for structural elements with rotational      
 degrees of freedom.  Use the PRED,OFF command to turn the predictor     
 OFF if it adversely affects the convergence.                            



                         ***********  PRECISE MASS SUMMARY  ***********

   TOTAL RIGID BODY MASS MATRIX ABOUT ORIGIN
               Translational mass               |   Coupled translational/rotational mass
         392.50        0.0000        0.0000     |     0.0000        0.0000       -130.83    
         0.0000        392.50        0.0000     |     0.0000        0.0000        130.83    
         0.0000        0.0000        392.50     |     130.83       -130.83        0.0000    
     ------------------------------------------ | ------------------------------------------
                                                |         Rotational mass (inertia)
                                                |     65.744       -32.708        0.0000    
                                                |    -32.708        65.744        0.0000    
                                                |     0.0000        0.0000        130.83    

   TOTAL MASS =  392.50    
     The mass principal axes coincide with the global Cartesian axes

   CENTER OF MASS (X,Y,Z)=   0.33333       0.33333        0.0000    

   TOTAL INERTIA ABOUT CENTER OF MASS
         22.133        10.903        0.0000    
         10.903        22.133        0.0000    
         0.0000        0.0000        43.611    

   PRINCIPAL INERTIAS =    33.035        11.230        43.611    
   ORIENTATION VECTORS OF THE INERTIA PRINCIPAL AXES IN GLOBAL CARTESIAN
     ( 0.707, 0.707, 0.000) (-0.707, 0.707, 0.000) ( 0.000, 0.000, 1.000) 


  *** MASS SUMMARY BY ELEMENT TYPE ***

  TYPE      MASS
     1   392.500    

 Range of element maximum matrix coefficients in global coordinates
 Maximum = 4.066758019E+10 at element 1.                                 
 Minimum = 4.066758019E+10 at element 1.                                 

   *** ELEMENT MATRIX FORMULATION TIMES
     TYPE    NUMBER   ENAME      TOTAL CP  AVE CP

        1         1  SHELL181      0.000   0.000000
 Time at end of element matrix formulation CP = 0.296875.                

 SPARSE MATRIX DIRECT SOLVER.
  Number of equations =           6,    Maximum wavefront =      6
  Memory allocated for solver              =     0.053 MB
  Memory required for in-core solution     =     0.051 MB
  Memory required for out-of-core solution =     0.051 MB

 *** NOTE ***                            CP =       0.297   TIME= 16:20:45
 The Sparse Matrix Solver is currently running in the in-core memory     
 mode.  This memory mode uses the most amount of memory in order to      
 avoid using the hard drive as much as possible, which most often        
 results in the fastest solution time.  This mode is recommended if      
 enough physical memory is present to accommodate all of the solver      
 data.                                                                   
 Sparse solver maximum pivot= 1.098901099E+10 at node 2 UX.              
 Sparse solver minimum pivot= 2676298.19 at node 2 ROTZ.                 
 Sparse solver minimum pivot in absolute value= 2676298.19 at node 2     
 ROTZ.                                                                   

   *** ELEMENT RESULT CALCULATION TIMES
     TYPE    NUMBER   ENAME      TOTAL CP  AVE CP

        1         1  SHELL181      0.000   0.000000

   *** NODAL LOAD CALCULATION TIMES
     TYPE    NUMBER   ENAME      TOTAL CP  AVE CP

        1         1  SHELL181      0.000   0.000000
 *** LOAD STEP     1   SUBSTEP     1  COMPLETED.    CUM ITER =      1
 *** TIME =   1.00000         TIME INC =   1.00000      NEW TRIANG MATRIX


 *** ANSYS BINARY FILE STATISTICS
  BUFFER SIZE USED= 16384
        0.062 MB WRITTEN ON ASSEMBLED MATRIX FILE: MITC.full
        0.312 MB WRITTEN ON RESULTS FILE: MITC.rst

 FINISH SOLUTION PROCESSING


 ***** ROUTINE COMPLETED *****  CP =         0.328



 *** ANSYS - ENGINEERING ANALYSIS SYSTEM  RELEASE Release 19.2     19.2     ***
 ANSYS Mechanical Enterprise                       
 00000000  VERSION=WINDOWS x64   16:20:45  MAY 08, 2025 CP=      0.328

  Single MITC3 Shell Element Demonstration                                     



          ***** ANSYS RESULTS INTERPRETATION (POST1) *****

 *** NOTE ***                            CP =       0.328   TIME= 16:20:45
 Reading results into the database (SET command) will update the current 
 displacement and force boundary conditions in the database with the     
 values from the results file for that load set.  Note that any          
 subsequent solutions will use these values unless action is taken to    
 either SAVE the current values or not overwrite them (/EXIT,NOSAVE).    

 *** WARNING ***                         CP =       0.328   TIME= 16:20:45
 ERESX is not a recognized POST1 command, abbreviation, or macro.        
  This command will be ignored.                                          

 PRINT EPEL ELEMENT SOLUTION PER ELEMENT

 *** ANSYS - ENGINEERING ANALYSIS SYSTEM  RELEASE Release 19.2     19.2     ***
 ANSYS Mechanical Enterprise                       
 00000000  VERSION=WINDOWS x64   16:20:45  MAY 08, 2025 CP=      0.328

  Single MITC3 Shell Element Demonstration                                     


 
 ***** POST1 ELEMENT NODAL ELASTIC STRAIN LISTING *****                        
 
  LOAD STEP=     1  SUBSTEP=     1                                             
   TIME=    1.0000      LOAD CASE=   0                                         
  SHELL RESULTS FOR TOP/BOTTOM ALSO MID WHERE APPROPRIATE                      
 
  THE FOLLOWING X,Y,Z VALUES ARE IN GLOBAL COORDINATES                         
 
  
  ELEMENT=       1        SHELL181
    NODE     EPELX        EPELY        EPELZ        EPELXY       EPELYZ       EPELXZ  
       1  0.13650E-006-0.39545E-038-0.58500E-007-0.26514E-021  0.0000       0.0000     
       2  0.13650E-006-0.39545E-038-0.58500E-007-0.26514E-021  0.0000       0.0000     
       3  0.13650E-006-0.39545E-038-0.58500E-007-0.26514E-021  0.0000       0.0000     
       3  0.13650E-006-0.39545E-038-0.58500E-007-0.26514E-021  0.0000       0.0000     
       1 -0.13650E-006 0.39545E-038 0.58500E-007 0.26514E-021  0.0000       0.0000     
       2 -0.13650E-006 0.39545E-038 0.58500E-007 0.26514E-021  0.0000       0.0000     
       3 -0.13650E-006 0.39545E-038 0.58500E-007 0.26514E-021  0.0000       0.0000     
       3 -0.13650E-006 0.39545E-038 0.58500E-007 0.26514E-021  0.0000       0.0000     
       1   0.0000       0.0000       0.0000       0.0000       0.0000       0.0000     
       2   0.0000       0.0000       0.0000       0.0000       0.0000       0.0000     
       3   0.0000       0.0000       0.0000       0.0000       0.0000       0.0000     
       3   0.0000       0.0000       0.0000       0.0000       0.0000       0.0000     

 PRINT U    NODAL SOLUTION PER NODE

 *** ANSYS - ENGINEERING ANALYSIS SYSTEM  RELEASE Release 19.2     19.2     ***
 ANSYS Mechanical Enterprise                       
 00000000  VERSION=WINDOWS x64   16:20:45  MAY 08, 2025 CP=      0.328

  Single MITC3 Shell Element Demonstration                                     


 
  ***** POST1 NODAL DEGREE OF FREEDOM LISTING *****                            
 
  LOAD STEP=     1  SUBSTEP=     1                                             
   TIME=    1.0000      LOAD CASE=   0                                         
 
  THE FOLLOWING DEGREE OF FREEDOM RESULTS ARE IN THE GLOBAL COORDINATE SYSTEM  
 
    NODE       UX           UY           UZ           USUM  
       1   0.0000       0.0000       0.0000       0.0000     
       2   0.0000       0.0000     -0.13806E-005 0.13806E-005
       3   0.0000       0.0000       0.0000       0.0000     

 MAXIMUM ABSOLUTE VALUES
 NODE          0            0            2            2
 VALUE    0.0000       0.0000     -0.13806E-005 0.13806E-005

 PRINT ROT  NODAL SOLUTION PER NODE

 *** ANSYS - ENGINEERING ANALYSIS SYSTEM  RELEASE Release 19.2     19.2     ***
 ANSYS Mechanical Enterprise                       
 00000000  VERSION=WINDOWS x64   16:20:45  MAY 08, 2025 CP=      0.328

  Single MITC3 Shell Element Demonstration                                     


 
  ***** POST1 NODAL DEGREE OF FREEDOM LISTING *****                            
 
  LOAD STEP=     1  SUBSTEP=     1                                             
   TIME=    1.0000      LOAD CASE=   0                                         
 
  THE FOLLOWING DEGREE OF FREEDOM RESULTS ARE IN THE GLOBAL COORDINATE SYSTEM  
 
    NODE       ROTX         ROTY         ROTZ         RSUM  
       1   0.0000       0.0000       0.0000       0.0000     
       2  0.53433E-020 0.27300E-005  0.0000      0.27300E-005
       3   0.0000       0.0000       0.0000       0.0000     

 MAXIMUM ABSOLUTE VALUES
 NODE          0            2            0            2
 VALUE    0.0000      0.27300E-005  0.0000      0.27300E-005

 PRINT S    ELEMENT SOLUTION PER ELEMENT

 *** ANSYS - ENGINEERING ANALYSIS SYSTEM  RELEASE Release 19.2     19.2     ***
 ANSYS Mechanical Enterprise                       
 00000000  VERSION=WINDOWS x64   16:20:45  MAY 08, 2025 CP=      0.328

  Single MITC3 Shell Element Demonstration                                     


 
 ***** POST1 ELEMENT NODAL STRESS LISTING *****                                
 
  LOAD STEP=     1  SUBSTEP=     1                                             
   TIME=    1.0000      LOAD CASE=   0                                         
  SHELL RESULTS FOR TOP/BOTTOM ALSO MID WHERE APPROPRIATE                      
 
  THE FOLLOWING X,Y,Z VALUES ARE IN GLOBAL COORDINATES                         
 
  
  ELEMENT=       1        SHELL181
    NODE     SX           SY           SZ           SXY          SYZ          SXZ     
       1   30000.       9000.0       0.0000     -0.20396E-010-0.36194E-025-0.12489E-012
       2   30000.       9000.0       0.0000     -0.20396E-010-0.36194E-025-0.12489E-012
       3   30000.       9000.0       0.0000     -0.20396E-010-0.36194E-025-0.12489E-012
       3   30000.       9000.0       0.0000     -0.20396E-010-0.36194E-025-0.12489E-012
       1  -30000.      -9000.0       0.0000      0.20396E-010-0.36194E-025-0.12489E-012
       2  -30000.      -9000.0       0.0000      0.20396E-010-0.36194E-025-0.12489E-012
       3  -30000.      -9000.0       0.0000      0.20396E-010-0.36194E-025-0.12489E-012
       3  -30000.      -9000.0       0.0000      0.20396E-010-0.36194E-025-0.12489E-012
       1   0.0000       0.0000       0.0000       0.0000     -0.43468E-009 -1499.9     
       2   0.0000       0.0000       0.0000       0.0000     -0.43468E-009 -1499.9     
       3   0.0000       0.0000       0.0000       0.0000     -0.43468E-009 -1499.9     
       3   0.0000       0.0000       0.0000       0.0000     -0.43468E-009 -1499.9     

 PRINT EPEL ELEMENT SOLUTION PER ELEMENT

 *** ANSYS - ENGINEERING ANALYSIS SYSTEM  RELEASE Release 19.2     19.2     ***
 ANSYS Mechanical Enterprise                       
 00000000  VERSION=WINDOWS x64   16:20:45  MAY 08, 2025 CP=      0.328

  Single MITC3 Shell Element Demonstration                                     


 
 ***** POST1 ELEMENT NODAL ELASTIC STRAIN LISTING *****                        
 
  LOAD STEP=     1  SUBSTEP=     1                                             
   TIME=    1.0000      LOAD CASE=   0                                         
  SHELL RESULTS FOR TOP/BOTTOM ALSO MID WHERE APPROPRIATE                      
 
  THE FOLLOWING X,Y,Z VALUES ARE IN GLOBAL COORDINATES                         
 
  
  ELEMENT=       1        SHELL181
    NODE     EPELX        EPELY        EPELZ        EPELXY       EPELYZ       EPELXZ  
       1  0.13650E-006-0.39545E-038-0.58500E-007-0.26514E-021  0.0000       0.0000     
       2  0.13650E-006-0.39545E-038-0.58500E-007-0.26514E-021  0.0000       0.0000     
       3  0.13650E-006-0.39545E-038-0.58500E-007-0.26514E-021  0.0000       0.0000     
       3  0.13650E-006-0.39545E-038-0.58500E-007-0.26514E-021  0.0000       0.0000     
       1 -0.13650E-006 0.39545E-038 0.58500E-007 0.26514E-021  0.0000       0.0000     
       2 -0.13650E-006 0.39545E-038 0.58500E-007 0.26514E-021  0.0000       0.0000     
       3 -0.13650E-006 0.39545E-038 0.58500E-007 0.26514E-021  0.0000       0.0000     
       3 -0.13650E-006 0.39545E-038 0.58500E-007 0.26514E-021  0.0000       0.0000     
       1   0.0000       0.0000       0.0000       0.0000       0.0000       0.0000     
       2   0.0000       0.0000       0.0000       0.0000       0.0000       0.0000     
       3   0.0000       0.0000       0.0000       0.0000       0.0000       0.0000     
       3   0.0000       0.0000       0.0000       0.0000       0.0000       0.0000     

 EXIT THE ANSYS POST1 DATABASE PROCESSOR


 ***** ROUTINE COMPLETED *****  CP =         0.328



 ***** END OF INPUT ENCOUNTERED *****

 PURGE ALL SOLUTION AND POST DATA
 SAVE ALL MODEL DATA

 ALL CURRENT ANSYS DATA WRITTEN TO FILE NAME= MITC.db
  FOR POSSIBLE RESUME FROM THIS POINT


 NUMBER OF WARNING MESSAGES ENCOUNTERED=          1
 NUMBER OF ERROR   MESSAGES ENCOUNTERED=          0

+--------------------- A N S Y S   S T A T I S T I C S ------------------------+

Release: Release 19.2       Build: 19.2       Update: UP20180808   Platform: WINDOWS x64 
Date Run: 05/08/2025   Time: 16:20     Process ID: 8944
Operating System: Windows 8  (Build: 9200)

Processor Model: Intel(R) Core(TM) i3-10110U CPU @ 2.10GHz

Compiler: Intel(R) FORTRAN Compiler Version 17.0.4  (Build: 20170411)
          Intel(R) C/C++ Compiler Version 17.0.4  (Build: 20170411)
          Intel(R) Math Kernel Library Version 2017.0.3 Product Build 20170413

Number of machines requested            :    1
Total number of cores available         :    4
Number of physical cores available      :    2
Number of processes requested           :    1
Number of threads per process requested :    2
Total number of cores requested         :    2 (Shared Memory Parallel)                    

GPU Acceleration: Not Requested

Job Name: MITC
Input File: D:\Luciano\Numerico\MITC_Shells\APDL\bend_F_1elem_t0.1\MITC.inp
Working Directory: D:\Luciano\Numerico\MITC_Shells\APDL\bend_F_1elem_t0.1

Total CPU time for main thread                    :        0.4 seconds
Total CPU time summed for all threads             :        0.4 seconds

Elapsed time spent pre-processing model (/PREP7)  :        0.0 seconds
Elapsed time spent solution - preprocessing       :        0.0 seconds
Elapsed time spent computing solution             :        0.0 seconds
Elapsed time spent solution - postprocessing      :        0.0 seconds
Elapsed time spent post-processing model (/POST1) :        0.0 seconds
 
Equation solver used                              :            Sparse (symmetric)

Maximum total memory used                         :        9.0 MB
Maximum total memory allocated                    :     2112.0 MB
Total physical memory available                   :          8 GB

Total amount of I/O written to disk               :        0.0 GB
Total amount of I/O read from disk                :        0.0 GB

+------------------ E N D   A N S Y S   S T A T I S T I C S -------------------+


 *---------------------------------------------------------------------------*
 |                                                                           |
 |                            ANSYS RUN COMPLETED                            |
 |                                                                           |
 |---------------------------------------------------------------------------|
 |                                                                           |
 | Ansys Release 19.2          Build 19.2         UP20180808     WINDOWS x64 |
 |                                                                           |
 |---------------------------------------------------------------------------|
 |                                                                           |
 | Database Requested(-db)  1024 MB    Scratch Memory Requested      1024 MB |
 | Maximum Database Used       1 MB    Maximum Scratch Memory Used      8 MB |
 |                                                                           |
 |---------------------------------------------------------------------------|
 |                                                                           |
 |        CP Time      (sec) =          0.359       Time  =  16:20:45        |
 |        Elapsed Time (sec) =          7.000       Date  =  05/08/2025      |
 |                                                                           |
 *---------------------------------------------------------------------------*
